<routes>
    <vType id="car" accel="2.6" decel="4.5" sigma="0.5" length="1" maxSpeed="19.4"/>
    
    <flow id="vehFlow1" type="car" begin="0" end="0" number="350" from="E0" to="E1" departPos="random_free" departLane="random" departSpeed="max"/>
    <flow id="vehFlow2" type="car" begin="0" end="0" number="350" from="E2" to="E3" departPos="random_free" departLane="random" departSpeed="max"/>
</routes>
