<?xml version="1.0" encoding="UTF-8"?>

<net version="1.20" junctionCornerDetail="5" limitTurnSpeed="5.50" xmlns:xsi="http://www.w3.org/2001/XMLSchema-instance" xsi:noNamespaceSchemaLocation="http://sumo.dlr.de/xsd/net_file.xsd">

    <location netOffset="0.00,0.00" convBoundary="0.00,0.00,60000.00,0.00" origBoundary="0.00,-10.00,60000.00,10.00" projParameter="!"/>

    <edge id="E0" from="J0" to="J1" priority="1">
        <lane id="E0_0" index="0" speed="33.33" length="60000.00" shape="0.00,-8.00 60000.00,-8.00"/>
        <lane id="E0_1" index="1" speed="33.33" length="60000.00" shape="0.00,-4.80 60000.00,-4.80"/>
        <lane id="E0_2" index="2" speed="33.33" length="60000.00" shape="0.00,-1.60 60000.00,-1.60"/>
    </edge>
    <edge id="E1" from="J1" to="J0" priority="1">
        <lane id="E1_0" index="0" speed="33.33" length="60000.00" shape="60000.00,8.00 0.00,8.00"/>
        <lane id="E1_1" index="1" speed="33.33" length="60000.00" shape="60000.00,4.80 0.00,4.80"/>
        <lane id="E1_2" index="2" speed="33.33" length="60000.00" shape="60000.00,1.60 0.00,1.60"/>
    </edge>

    <junction id="J0" type="dead_end" x="0.00" y="0.00" incLanes="E1_0 E1_1 E1_2" intLanes="" shape="0.00,0.00 0.00,9.60 0.00,0.00"/>
    <junction id="J1" type="dead_end" x="60000.00" y="0.00" incLanes="E0_0 E0_1 E0_2" intLanes="" shape="60000.00,0.00 60000.00,-9.60 60000.00,0.00"/>

</net>
