<?xml version="1.0" encoding="UTF-8"?>
<configuration>
    <input>
        <net-file value="highway.net.xml"/>
        <route-files value="highway.rou.xml"/>
    </input>
    <time>
        <begin value="0"/>
        <end value="10700"/>
    </time>
    <output>
        <netstate-dump value="raw.xml" />
    </output>
</configuration>
