<?xml version="1.0" encoding="UTF-8"?>

<!-- generated on 2025-01-18 15:49:20 by Eclipse SUMO duarouter Version 1.21.0
<duarouterConfiguration xmlns:xsi="http://www.w3.org/2001/XMLSchema-instance" xsi:noNamespaceSchemaLocation="http://sumo.dlr.de/xsd/duarouterConfiguration.xsd">

    <input>
        <net-file value="strogino.net.xml"/>
        <route-files value="strogino.trips.xml"/>
    </input>

    <output>
        <output-file value="strogino.rou.xml"/>
    </output>

    <report>
        <ignore-errors value="true"/>
    </report>

</duarouterConfiguration>
-->

<routes xmlns:xsi="http://www.w3.org/2001/XMLSchema-instance" xsi:noNamespaceSchemaLocation="http://sumo.dlr.de/xsd/routes_file.xsd">
    <vehicle id="0" depart="0.00">
        <route edges="23254763#2 23254763#3 1167747356#1 1052675058 1052675059 83861789#0 83861789#1 1052675057 83861790 1052675056#0 1052675056#1 1052675055#0 1052675055#1 83861792 1233933462#0 1233933462#1 1233933462#2 1157849034#0 1157849034#1 326146757#1 1350937021 1052675054#0 1052675054#1 1052675054#2 1350937020 1052675053#0 1052675053#1 681217521#0 681217521#1 1052675052 1052675050 1052675049 83861788#1 83861791#0 83861791#1 83861791#2 83861791#3 -38963644 -301243903#2 -301243903#1 -301243903#0 -1158097321 -301243902#1 -301243902#0 -1240474934 -1158095487 -73273590 -1158095488#0 -1158095485#1"/>
    </vehicle>
    <vehicle id="1" depart="1.00">
        <route edges="108126134#0 108126134#1 1350965236 1350965235#1 1350965235#2 435282152#1 435282152#2 435282152#3 435282150#0 435282150#1 1160736369 23254522#1 23254522#2 23254522#3 28218245#0 28218245#1 28218245#2 108126135 120840398 -610008340"/>
    </vehicle>
    <vehicle id="2" depart="2.00">
        <route edges="301243903#1 301243903#2 38963644 1160736370 23254522#1 23254522#2 23254522#3 28218245#0 28218245#1 28218245#2 108126135 120840398 -610008340 -249215885#4 -249215885#2 -249215885#1 -249215885#0 -610008329 -41747645#1 -41747645#0 -41747641#1 -41747641#0 41747641#0 41747641#1 41747645#0 41747645#1 610008329 249215885#0 249215885#1"/>
    </vehicle>
    <vehicle id="4" depart="4.00">
        <route edges="1232299199#1 1323156786#1 1232299198#0 1232299198#1 1232299197 1323156788#0 1323156788#1 23254558#1 23254558#2 23254558#3 23254558#4 23254558#5 -38963644 -301243903#2 -301243903#1 -301243903#0 -1158097321 -301243902#1 -301243902#0 -1240474934 -1158095487"/>
    </vehicle>
    <vehicle id="5" depart="5.00">
        <route edges="-768587331#2 -768587331#1 -768587331#0 -1241233197 1241233197 768587331#0 768587331#1 768587331#2 1333209940#0 1333209940#1 1241233196 768587335#0 -24405341#9 -24405341#8 -24405341#7 -24405341#5 -24405341#4 -24405341#3 -24405341#2 -24405341#1 1158098640#5 123306749#1 1158098427#2 1158098083 1158094953 88088693 154928476#1 92867352 154928468#0 154928468#1 154928464 50285432#0 50285432#1 527944560#0 527944560#1 681217514 1158086715 681217513#0 681217513#1 88088706 1157853987 1158086293#1 1157853715 681217517 681217518#0 681217518#1 1158086713 88088688#0 88088688#1 1240474938#1"/>
    </vehicle>
    <vehicle id="6" depart="6.00">
        <route edges="-1158095488#0 -1158095485#1 -1158095485#0 -1158095207#1 -1158095207#0 -1240474936 -1240474937 -1158095208#1 -1158095208#0 -1158090420#0 -1158090418#0 -1240474938#1 88088688#2 154928469#0 154928469#1 23174024#0 23174024#2 23174024#4 321370424 808404757 1079613305#0 808404758 -301243903#2 -301243903#1"/>
    </vehicle>
    <vehicle id="7" depart="7.00">
        <route edges="24405341#2 24405341#3 24405341#4 24405341#5 24405341#7 24405341#8 24405341#9 -24405341#9 -24405341#8 -24405341#7 -24405341#5 -24405341#4 -24405341#3 -24405341#2 -24405341#1 1158098640#5 123306749#1 1158098427#2 1158098083 1158094953 88088693 154928476#1 92867352 429392822 154928474 -1158087239#1 541673446 154928480 429392354 154928473 154928481#0 154928481#1 154928481#2 154928481#3 23174024#0 23174024#2 23174024#4 321370424 808404757 1079613305#0 1160736369 435282150#0 435282150#1 1350965238#0 1350965238#1"/>
    </vehicle>
    <vehicle id="8" depart="8.00">
        <route edges="-768587334 -768587335#2 -24405341#9 -24405341#8 -24405341#7 -24405341#5 -24405341#4 -24405341#3 -24405341#2 -24405341#1 1158098640#5 123306749#1 1158098427#2 1158098083 1158094953 88088693 154928476#1 92867352 154928468#0 154928468#1 154928464 50285432#0 50285432#1 527944560#0 527944560#1 681217514 1158086715 681217513#0 681217513#1 88088706 1157853987 1158086293#1 23173895#1"/>
    </vehicle>
    <vehicle id="9" depart="9.00">
        <route edges="435282155#0 435282155#2 1084501318#1 435282157#1 435282157#2 1157853223#1 1157848822#1 429392335 1350937021 1052675054#0 1052675054#1 1052675054#2 1350937020 1052675053#0 1052675053#1 681217521#0 681217521#1 1052675052 1052675050 1052675049 83861788#1 83861791#0 83861791#1 83861791#2 83861791#3 -38963644 -301243903#2 -301243903#1 -301243903#0 -1158097321 -301243902#1 -301243902#0 -1240474934 -1158095487 -73273590 -1158095488#0 -1158095485#1 -1158095485#0 -1158095207#1 -1158095207#0 -1240474936 -1240474937 -1158095208#1 -1158095208#0 -1158090420#0 -1158090418#0"/>
    </vehicle>
    <vehicle id="10" depart="10.00">
        <route edges="435282152#3 435282150#0 435282150#1 1350965238#0 1350965238#1 120840401 321370423 321370425#0 321370425#1 321370425#2 123306750 1158098732 1158098733#1 1158098640#1 1158098640#2 1158098640#4 1158098640#5 123306749#1 1158098427#2 1158098083 1158094953 88088693 154928476#1 92867352 429392822 27685787#0 27685787#1"/>
    </vehicle>
    <vehicle id="11" depart="11.00">
        <route edges="1158090418#0 1158090418#2 1158090420#1 1158095208#1 1240474937 1240474936 1158095207#0 1158095207#1 1158095207#2 1158095485#1 1158095485#2 1158095488#1 1158095487 1240474934 301243902#0 301243902#1 1240474933 1158097424 301243903#1 301243903#2 38963644 1160736370 435282150#0 435282150#1 1350965238#0 1350965238#1 120840401 321370423 321370425#0 321370425#1 321370425#2 123306750 1158098732 1158098733#1 1158098640#1 1158098640#2 1158098640#4 1158098640#5 123306749#1 1158098427#2 1158098083 1158094953 88088693 154928476#1 92867352 154928468#0 154928468#1 154928464 50285432#0 50285432#1 -27685783#4 -27685783#3 -27685783#2 -27685783#1 -27685783#0"/>
    </vehicle>
    <vehicle id="12" depart="12.00">
        <route edges="808404758 23254763#2 23254763#3 1167747356#1 1052675058 1052675059 83861789#0 83861789#1 1052675057 83861790 1052675056#0 1052675056#1 1052675055#0 1052675055#1 83861792 1233933462#0 1233933462#1 1233933462#2 1157849034#0 1157849034#1 1157848824#0 1157848824#1 1157853221#1 435282157#1 435282157#2 1157853223#1"/>
    </vehicle>
    <vehicle id="13" depart="13.00">
        <route edges="-1333209940#1 -1333209940#0 -768587331#2 -768587331#1 -768587331#0 -1241233197 1241233197 768587331#0 768587331#1 768587331#2 1333209940#0 1333209940#1 1241233196 768587335#0 -24405341#9 -24405341#8 -24405341#7 -24405341#5 -24405341#4 -24405341#3 -24405341#2 -24405341#1 1158098640#5 123306749#1 1158098427#2 1158098083 1158094953 88088693 154928476#1 92867352 429392822 154928474 -1158087239#1 541673446 154928480 429392354 154928473 154928481#0 154928481#1 154928481#2 154928481#3 23174024#0 23174024#2 23174024#4 321370424 808404757 1079613305#0 808404758 38963644 -23254558#5 -23254558#4 -23254558#3 -23254558#2 -23254558#1 -23254558#0 -1323156788#0"/>
    </vehicle>
    <vehicle id="15" depart="15.00">
        <route edges="435282152#3 435282150#0 435282150#1 1350965238#0 1350965238#1 120840401 321370423 28381271#0 28381271#1"/>
    </vehicle>
    <vehicle id="16" depart="16.00">
        <route edges="1350965238#0 1350965238#1 120840401 321370423 321370425#0 321370425#1 321370425#2 123306750 23254585#0 23254585#1 23254585#2 321370424 808404757 1079613305#0 808404758 23254763#2 23254763#3 1167747356#1 1052675058 1052675059 83861789#0 83861789#1 1052675057 83861790 1052675056#0 1052675056#1 1052675055#0 1052675055#1 83861792 1233933462#0 1233933462#1 1233933462#2 1157849034#0 1157849034#1 326146757#1 1350937021 1052675054#0 1052675054#1 1052675054#2 1350937020 1052675053#0 1052675053#1 681217521#0 681217521#1 1052675052 1052675050 1052675049 83861788#1 83861791#0 83861791#1"/>
    </vehicle>
    <vehicle id="17" depart="17.00">
        <route edges="1158098427#2 1158098083 1158094953 88088693 154928476#1 92867352 154928468#0 154928448"/>
    </vehicle>
    <vehicle id="18" depart="18.00">
        <route edges="527944560#0 527944560#1 681217514 1158086715 681217513#0 681217513#1 88088706 1157853987 1158086293#1 435282157#1 435282157#2 1157853223#1 1157848822#1 429392335 1350937021 1052675054#0 1052675054#1 1052675054#2 1350937020 1052675053#0 1052675053#1 681217521#0 681217521#1 1052675052 1052675050 1052675049 83861788#1 83861791#0 83861791#1 83861791#2 83861791#3 1160736370 23254522#1 23254522#2"/>
    </vehicle>
    <vehicle id="19" depart="19.00">
        <route edges="624227615#1 624227615#2 610008342 624227612#0 624227612#1 1241233211 1241233212 435282151#0 435282151#1 1350965236 1350965235#1 1350965235#2 435282152#1 435282152#2 435282152#3 435282150#0 435282150#1 1350965238#0 1350965238#1 120840401 321370423 321370425#0 321370425#1 321370425#2 123306750 1158098732 1158098733#1 1158098640#1 1158098640#2 1158098640#4 1158098640#5 123306749#1 1158098427#2 1158098083 1158094953 88088693 154928476#1 92867352 429392822 154928474 -1158087239#1 541673446 154928480 429392354 154928473 154928481#0"/>
    </vehicle>
    <vehicle id="20" depart="20.00">
        <route edges="28218245#2 435282151#0 435282151#1 1350965236 1350965235#1 1350965235#2 435282152#1 435282152#2 435282152#3 435282150#0 435282150#1 808404758 38963644 -23254558#5 -23254558#4 -23254558#3 -23254558#2 -23254558#1 -23254558#0 -1323156788#0 -1232299197 -1232299198#1 -1232299198#0 -1323156786#1 -1323156786#0 -1232299199#0"/>
    </vehicle>
    <vehicle id="21" depart="21.00">
        <route edges="-768587335#2 -24405341#9 -24405341#8 -24405341#7 -24405341#5 -24405341#4 -24405341#3 -24405341#2 -24405341#1 1158098640#5 123306749#1 1158098427#2 1158098083 1158094953 88088693 154928476#1 92867352 429392822 154928474 -1158087239#1 541673446 154928480 429392354 154928473 154928481#0 154928481#1 154928481#2 154928481#3 23174024#0 23174024#2 23174024#4 321370424 808404757 1079613305#0 1160736369 23254522#1 23254522#2 23254522#3 28218245#0 28218245#1 28218245#2 108126135 120840398 -610008340 -249215885#4 -249215885#2 -249215885#1 -249215885#0 -610008329 -41747645#1 -41747645#0 -41747641#1 -41747641#0 41747641#0 41747641#1 41747645#0 41747645#1 610008329 249215885#0 249215885#1 249215885#2 249215885#4 610008340 108126134#0 108126134#1"/>
    </vehicle>
    <vehicle id="22" depart="22.00">
        <route edges="-1241233196 -1333209940#1 -1333209940#0 -768587331#2"/>
    </vehicle>
    <vehicle id="24" depart="24.00">
        <route edges="23254585#1 23254585#2 321370424 808404757 1079613305#0 808404758 23254763#2 23254763#3 1167747356#1 1052675058 1052675059 83861789#0 83861789#1 1052675057 83861790 1052675056#0 1052675056#1 1052675055#0 1052675055#1 83861792 1233933462#0 1233933462#1 1233933462#2 1157849034#0 1157849034#1 1157848824#0 1157848824#1 1157853221#1 1157853715 681217517 681217518#0 681217518#1 1158086713 88088688#0 88088688#1 1240474938#1 1158090418#0 1158090418#2 1158090420#1 1158095208#1 1240474937 1240474936 1158095207#0 1158095207#1"/>
    </vehicle>
    <vehicle id="25" depart="25.00">
        <route edges="1158095488#1 1158095487 1240474934 301243902#0 301243902#1 1240474933 1158097424 301243903#1 301243903#2 38963644 1160736370 23254522#1 23254522#2 23254522#3 28218245#0 28218245#1 28218245#2 108126135 120840398 -610008340 -249215885#4 -249215885#2 -249215885#1 -249215885#0 -610008329 -41747645#1 -41747645#0 -41747641#1"/>
    </vehicle>
    <vehicle id="26" depart="26.00">
        <route edges="1052675058 1052675059 83861789#0 83861789#1 1052675057 83861790 1052675056#0 1052675056#1 1052675055#0 1052675055#1 83861792 1233933462#0 1233933462#1 1233933462#2 1157849034#0 1157849034#1 326146757#1 1350937021 1052675054#0 1052675054#1 1052675054#2 1350937020 1052675053#0 1052675053#1 681217521#0 681217521#1 1052675052 1052675050 1052675049 83861788#1 83861791#0 83861791#1 83861791#2 83861791#3 1160736370 435282150#0 435282150#1 1350965238#0 1350965238#1 120840401 321370423 321370425#0 321370425#1 321370425#2 123306750 1158098732 1158098733#1 1158098640#1 1158098640#2 1158098640#4 24405341#1 24405341#2 24405341#3 24405341#4 24405341#5 24405341#7 24405341#8 24405341#9 768587335#2 768587334"/>
    </vehicle>
    <vehicle id="27" depart="27.00">
        <route edges="24405341#2 24405341#3 24405341#4 24405341#5 24405341#7 24405341#8 24405341#9 -24405341#9 -24405341#8 -24405341#7 -24405341#5 -24405341#4 -24405341#3 -24405341#2 -24405341#1 1158098640#5 123306749#1 1158098427#2 1158098083 1158094953 88088693 154928476#1 92867352 429392822 154928474 -1158087239#1 541673446 154928480 429392354 154928473 154928481#0 154928481#1 154928481#2 154928481#3 23174024#0 23174024#2"/>
    </vehicle>
    <vehicle id="28" depart="28.00">
        <route edges="-28218888#4 -28218888#3 -28218888#2 -28218888#1 -28218888#0 1158098083 1158094953 88088693 154928476#1 92867352 429392822 154928474 -1158087239#1 541673446 154928480 429392354 154928473 154928481#0 154928481#1 154928481#2 154928481#3 23174024#0 23174024#2 23174024#4 321370424 321370422#2 321370423 28381271#0"/>
    </vehicle>
    <vehicle id="29" depart="29.00">
        <route edges="-28218888#1 -28218888#0 1158098083 1158094953 88088693 154928476#1 92867352 154928468#0 154928468#1 154928464 50285432#0 50285432#1 527944560#0 527944560#1 681217514 1158086715 681217513#0 681217513#1 88088706 1157853987 1158086293#1 1157853715 681217517 681217518#0 681217518#1 1158086713 88088688#0 88088688#1 1240474938#1 1158090418#0 1158090418#2 1158090420#1 1158095208#1 1240474937 1240474936 1158095207#0 1158095207#1 1158095207#2 1158095485#1 1158095485#2 1158095488#1 1158095487"/>
    </vehicle>
    <vehicle id="30" depart="30.00">
        <route edges="88088688#2 154928469#0 154928469#1 23174024#0 23174024#2 23174024#4 321370424 321370422#2 321370423 321370425#0 321370425#1 321370425#2 123306750 23254585#0 23254585#1"/>
    </vehicle>
    <vehicle id="31" depart="31.00">
        <route edges="154928469#1 23174024#0 23174024#2 23174024#4 321370424 321370422#2 321370423 321370425#0 321370425#1 321370425#2 123306750 1158098732 1158098733#1 1158098640#1 1158098640#2 1158098640#4 1158098640#5 123306749#1 1158098427#2 1158098083 1158094953 88088693 154928476#1 92867352 154928468#0 154928468#1 154928464 50285432#0 50285432#1 -27685783#4 -27685783#3 -27685783#2 -27685783#1 -27685783#0 27685783#0 27685783#1"/>
    </vehicle>
    <vehicle id="32" depart="32.00">
        <route edges="610008329 249215885#0 249215885#1 249215885#2 249215885#4 610008340 108126134#0 108126134#1 1350965236 1350965235#1 1350965235#2 435282152#1 435282152#2 435282152#3 435282150#0 435282150#1 1160736369 23254522#1 23254522#2 23254522#3 28218245#0 28218245#1 28218245#2 108126135 120840398 -610008340 -249215885#4 -249215885#2 -249215885#1 -249215885#0 -610008329 -41747645#1 -41747645#0 -41747641#1 -41747641#0 41747641#0 41747641#1 41747645#0"/>
    </vehicle>
    <vehicle id="33" depart="33.00">
        <route edges="1052675049 83861788#1 83861791#0 83861791#1 83861791#2 83861791#3 -38963644 -301243903#2 -301243903#1 -301243903#0 -1158097321 -301243902#1 -301243902#0 -1240474934 -1158095487 -73273590 -1158095488#0"/>
    </vehicle>
    <vehicle id="34" depart="34.00">
        <route edges="1157849034#1 326146757#1 1350937021 1052675054#0 1052675054#1 1052675054#2 1350937020 1052675053#0 1052675053#1 681217521#0 681217521#1 1052675052 1052675050 1052675049 83861788#1 83861791#0 83861791#1 83861791#2 48011918#0 48011918#1 23254763#2 23254763#3 1167747356#1 1052675058 1052675059 83861789#0 83861789#1 1052675057 83861790 1052675056#0 1052675056#1 1052675055#0 1052675055#1"/>
    </vehicle>
    <vehicle id="35" depart="35.00">
        <route edges="-73273590 -1158095488#0 -1158095485#1 -1158095485#0 -1158095207#1 -1158095207#0 -1240474936 -1240474937 -1158095208#1 -1158095208#0 -1158090420#0 -1158090418#0 -1240474938#1 88088688#2 154928469#0 154928469#1 23174024#0 23174024#2 23174024#4 321370424 321370422#2 321370423 321370425#0 321370425#1 321370425#2 123306750 1158098732 1158098733#1 1158098640#1 1158098640#2 1158098640#4 24405341#1 24405341#2 24405341#3 24405341#4 24405341#5 24405341#7 24405341#8 24405341#9 768587335#2"/>
    </vehicle>
    <vehicle id="37" depart="37.00">
        <route edges="24405341#4 24405341#5 24405341#7 24405341#8 24405341#9 -24405341#9 -24405341#8 -24405341#7 -24405341#5 -24405341#4 -24405341#3 -24405341#2 -24405341#1 1158098640#5 123306749#1 1158098427#2 1158098083 1158094953 88088693 154928476#1 92867352 429392822 154928474 -1158087239#1 541673446 154928480 429392354 154928473 154928481#0 154928481#1 154928481#2 154928481#3 23174024#0 23174024#2 23174024#4 321370424 321370422#2 321370423 321370425#0 321370425#1 321370425#2 123306750 1158098732 1158098733#1 1158098640#1 1158098640#2"/>
    </vehicle>
    <vehicle id="39" depart="39.00">
        <route edges="1052675058 1052675059 83861789#0 83861789#1 1052675057 83861790 1052675056#0 1052675056#1 1052675055#0 1052675055#1 83861792 1233933462#0 1233933462#1 1233933462#2 1157849034#0 1157849034#1 326146757#1 1350937021 1052675054#0 1052675054#1 1052675054#2 1350937020 1052675053#0 1052675053#1 681217521#0 681217521#1 1052675052"/>
    </vehicle>
    <vehicle id="40" depart="40.00">
        <route edges="154928473 154928481#0 154928481#1 154928481#2 154928481#3 23174024#0 23174024#2 23174024#4 321370424 808404757 1079613305#0 808404758 23254763#2 23254763#3 1167747356#1 1052675058 1052675059 83861789#0 83861789#1 1052675057 83861790 1052675056#0 1052675056#1 1052675055#0"/>
    </vehicle>
    <vehicle id="41" depart="41.00">
        <route edges="23173935 50285432#0 50285432#1 527944560#0 527944560#1 681217514 1158086715 681217513#0 681217513#1 88088706 1157853987 1158086293#1 435282157#1 435282157#2 1157853223#1 1157848822#1 429392335 1350937021 1052675054#0 1052675054#1 1052675054#2 1350937020 1052675053#0 1052675053#1 681217521#0 681217521#1 1052675052 1052675050 1052675049 83861788#1 83861791#0 83861791#1 83861791#2 83861791#3 1160736370 23254522#1 23254522#2 23254522#3 610008341 624227650 624227649#0"/>
    </vehicle>
    <vehicle id="42" depart="42.00">
        <route edges="1160736369 23254522#1 23254522#2 23254522#3 28218245#0 28218245#1 28218245#2 108126135 120840398 -610008340 -249215885#4 -249215885#2 -249215885#1 -249215885#0 -610008329"/>
    </vehicle>
    <vehicle id="44" depart="44.00">
        <route edges="-1333209940#1 -1333209940#0 -768587331#2 -768587331#1 -768587331#0 -1241233197 1241233197 768587331#0 768587331#1 768587331#2 1333209940#0 1333209940#1 1241233196 768587335#0 -24405341#9 -24405341#8 -24405341#7 -24405341#5 -24405341#4 -24405341#3 -24405341#2 -24405341#1 1158098640#5 123306749#1 1158098427#2 1158098083 1158094953 88088693 154928476#1 92867352 429392822 154928474 -1158087239#1 541673446 154928480 429392354 154928473 154928481#0 154928481#1 154928481#2 154928481#3 23174024#0 23174024#2 23174024#4 321370424 808404757 1079613305#0 808404758 38963644 -23254558#5 -23254558#4 -23254558#3 -23254558#2 -23254558#1 -23254558#0 -1323156788#0 -1232299197 -1232299198#1 -1232299198#0 -1323156786#1 -1323156786#0 -1232299199#0 -1232299200#3 -1232299200#2 -1232299200#1 -1232299200#0"/>
    </vehicle>
    <vehicle id="46" depart="46.00">
        <route edges="435282150#1 1350965238#0 1350965238#1 120840401"/>
    </vehicle>
    <vehicle id="48" depart="48.00">
        <route edges="88088706 1157853987 1158086293#1 435282157#1 435282157#2 1157853223#1 1157848822#1 429392335 1350937021 1052675054#0 1052675054#1 1052675054#2 1350937020"/>
    </vehicle>
    <vehicle id="50" depart="50.00">
        <route edges="-1158095208#0 -1158090420#0 -1158090418#0 -1240474938#1 88088688#2 154928469#0 154928469#1 23174024#0 23174024#2 23174024#4 321370424 321370422#2 321370423 321370425#0 321370425#1 321370425#2 123306750 1158098732 1158098733#1 1158098640#1 1158098640#2 1158098640#4 1158098640#5 123306749#1 1158098427#2 28218888#0 28218888#1 28218888#2 28218888#3 28218888#4"/>
    </vehicle>
    <vehicle id="51" depart="51.00">
        <route edges="27685783#1 27685783#2 27685783#3 27685783#4 527944560#0 527944560#1 681217514 1158086715 681217513#0 681217513#1 88088706 1157853987 1158086293#1 435282157#1 435282157#2 1157853223#1 1157848822#1 429392335 1350937021 1052675054#0 1052675054#1 1052675054#2 1350937020 1052675053#0 1052675053#1 681217521#0 681217521#1 1052675052 1052675050 1052675049 83861788#1 83861791#0 83861791#1 83861791#2 83861791#3 1160736370 23254522#1 23254522#2 23254522#3 28218245#0 28218245#1 28218245#2 435282151#0 435282151#1 1350965236 1350965235#1 1350965235#2"/>
    </vehicle>
    <vehicle id="52" depart="52.00">
        <route edges="1052675058 1052675059 83861789#0 83861789#1 1052675057 83861790 1052675056#0 1052675056#1 1052675055#0 1052675055#1 83861792 1233933462#0 1233933462#1 1233933462#2 1157849034#0 1157849034#1 326146757#1 1350937021 1052675054#0 1052675054#1 1052675054#2 1350937020 1052675053#0 1052675053#1 681217521#0 681217521#1 1052675052 1052675050 1052675049 83861788#1 83861791#0 83861791#1 83861791#2 83861791#3 1160736370 435282150#0 435282150#1 1350965238#0 1350965238#1 120840401 321370423 321370425#0 321370425#1 321370425#2 123306750 23254585#0 23254585#1 23254585#2"/>
    </vehicle>
    <vehicle id="55" depart="55.00">
        <route edges="624227617#1 624227616#0 624227616#1 624227615#0 624227615#1 624227615#2 610008342 624227612#0 624227612#1 1241233211 1241233212 435282151#0 435282151#1 1350965236 1350965235#1 1350965235#2 435282152#1 435282152#2 435282152#3 435282150#0 435282150#1 808404758 23254763#2 23254763#3 1167747356#1 1052675058 1052675059 83861789#0 83861789#1 1052675057 83861790 1052675056#0 1052675056#1 1052675055#0"/>
    </vehicle>
    <vehicle id="58" depart="58.00">
        <route edges="1157847143#1 1157847491#1 1092717624#1 1092717624#2 1350937021 1052675054#0 1052675054#1 1052675054#2 1350937020 1052675053#0 1052675053#1 681217521#0 681217521#1 1052675052 1052675050 1052675049 83861788#1 83861791#0 83861791#1 83861791#2 83861791#3 1160736370 435282150#0 435282150#1 1350965238#0 1350965238#1 120840401 321370423 321370425#0 321370425#1 321370425#2 123306750 23254585#0 23254585#1"/>
    </vehicle>
    <vehicle id="59" depart="59.00">
        <route edges="23254522#1 23254522#2 23254522#3 28218245#0 28218245#1 28218245#2 108126135 120840398 -610008340 -249215885#4"/>
    </vehicle>
    <vehicle id="60" depart="60.00">
        <route edges="38963644 1160736370 23254522#1 23254522#2 23254522#3 28218245#0 28218245#1 28218245#2 435282151#0 435282151#1 1350965236"/>
    </vehicle>
    <vehicle id="61" depart="61.00">
        <route edges="429392338 23173935 50285432#0 50285432#1 527944560#0 527944560#1 681217514 1158086715 681217513#0 681217513#1 88088706 1157853987 1158086293#1 435282157#1 435282157#2 1157853223#1 1157848822#1 429392335 1350937021 1052675054#0 1052675054#1 1052675054#2 1350937020"/>
    </vehicle>
    <vehicle id="62" depart="62.00">
        <route edges="-1158090418#0 -1240474938#1 88088688#2 1240474935#0 1240474935#1 1240474935#2 50285432#1 527944560#0 527944560#1 681217514 1158086715 681217513#0 681217513#1 88088706 1157853987 1158086293#1 435282157#1 435282157#2 1157853223#1 1157848822#1 429392335 429392344 1157848824#0 1157848824#1"/>
    </vehicle>
    <vehicle id="63" depart="63.00">
        <route edges="-1158095485#1 -1158095485#0 -1158095207#1 -1158095207#0 -1240474936 -1240474937 -1158095208#1 -1158095208#0 -1158090420#0 -1158090418#0 -1240474938#1 88088688#2 154928469#0 154928469#1 23174024#0 23174024#2 23174024#4 321370424 321370422#2 321370423 321370425#0 321370425#1 321370425#2 123306750 1158098732 1158098733#1 1158098640#1 1158098640#2 1158098640#4 24405341#1 24405341#2 24405341#3 24405341#4 24405341#5 24405341#7 24405341#8 24405341#9 -768587335#0 -1241233196 -1333209940#1 -1333209940#0 -768587331#2 -768587331#1 -768587331#0 -1241233197 1241233197 768587331#0"/>
    </vehicle>
    <vehicle id="64" depart="64.00">
        <route edges="624227618#0 624227618#1 624227618#2 624227618#3 624227617#0 624227617#1 624227616#0 624227616#1 624227615#0 624227615#1 624227615#2 610008342 624227612#0 624227612#1 1241233211 1241233212 435282151#0 435282151#1 1350965236 1350965235#1 1350965235#2 435282152#1 435282152#2 435282152#3 435282150#0 435282150#1 1350965238#0 1350965238#1 120840401 321370423 321370425#0 321370425#1 321370425#2 123306750 1158098732 1158098733#1 1158098640#1 1158098640#2 1158098640#4 1158098640#5 123306749#1 1158098427#2 1158098083 1158094953 88088693 154928476#1 92867352 154928468#0 154928468#1 154928464 50285432#0 50285432#1 527944560#0"/>
    </vehicle>
    <vehicle id="65" depart="65.00">
        <route edges="1157848824#0 1157848824#1 1157853221#1 435282157#1 435282157#2 1157853223#1 1157848822#1 429392335 1350937021 1052675054#0 1052675054#1 1052675054#2 1350937020 1052675053#0 1052675053#1 681217521#0 681217521#1 1052675052 1052675050 1052675049 83861788#1 83861791#0 83861791#1 83861791#2 83861791#3 -23254558#5 -23254558#4 -23254558#3 -23254558#2 -23254558#1 -23254558#0 -1323156788#0 -1232299197 -1232299198#1 -1232299198#0 -1323156786#1 -1323156786#0 -1232299199#0 -1232299200#3"/>
    </vehicle>
    <vehicle id="66" depart="66.00">
        <route edges="624227618#0 624227618#1 624227618#2 624227618#3 624227617#0 624227617#1 624227616#0 624227616#1 624227615#0 624227615#1 624227615#2 610008342 624227612#0 624227612#1 1241233211 1241233212 435282151#0 435282151#1 1350965236 1350965235#1 1350965235#2 435282152#1 435282152#2 435282152#3 435282150#0 435282150#1 808404758 23254763#2 23254763#3 1167747356#1 1052675058 1052675059 83861789#0 83861789#1 1052675057 83861790 1052675056#0 1052675056#1 1052675055#0 1052675055#1 83861792 1233933462#0 1233933462#1 1233933462#2 1157849034#0 1157849034#1 1157848824#0 1157848824#1 1157853221#1 1157853715 681217517 681217518#0 681217518#1 1158086713 88088688#0 88088688#1 88088688#2 78077965#0"/>
    </vehicle>
    <vehicle id="68" depart="68.00">
        <route edges="-1240474936 -1240474937 -1158095208#1 -1158095208#0 -1158090420#0 -1158090418#0 -1240474938#1 88088688#2 154928469#0 154928469#1 23174024#0 23174024#2 23174024#4 321370424 321370422#2 321370423 321370425#0 321370425#1"/>
    </vehicle>
    <vehicle id="69" depart="69.00">
        <route edges="41747641#0 41747641#1 41747645#0 41747645#1 610008329 249215885#0 249215885#1 249215885#2 249215885#4 610008340 108126134#0 108126134#1 1350965236 1350965235#1 1350965235#2 435282152#1 435282152#2 435282152#3 435282150#0 435282150#1 1350965238#0 1350965238#1 120840401 321370423 321370425#0 321370425#1 321370425#2 123306750 1158098732 1158098733#1 1158098640#1 1158098640#2 1158098640#4 24405341#1 24405341#2 24405341#3 24405341#4 24405341#5 24405341#7 24405341#8 24405341#9 -24405341#9 -24405341#8 -24405341#7 -24405341#5 -24405341#4 -24405341#3"/>
    </vehicle>
    <vehicle id="70" depart="70.00">
        <route edges="1240474933 1158097424 301243903#1 301243903#2 38963644 1160736370 435282150#0 435282150#1 1350965238#0 1350965238#1 120840401 321370423 321370425#0 321370425#1 321370425#2 123306750 1158098732 1158098733#1 1158098640#1 1158098640#2 1158098640#4 1158098640#5 123306749#1 1158098427#2 1158098083 1158094953 88088693 154928476#1 92867352 154928468#0 154928448"/>
    </vehicle>
    <vehicle id="72" depart="72.00">
        <route edges="1232299199#1 1323156786#1 1232299198#0 1232299198#1 1232299197 1323156788#0 1323156788#1 23254558#1 23254558#2 23254558#3 23254558#4 23254558#5 1160736370 23254522#1 23254522#2 23254522#3 28218245#0 28218245#1 28218245#2 108126135 120840398 -610008340 -249215885#4 -249215885#2 -249215885#1 -249215885#0 -610008329 -41747645#1 -41747645#0"/>
    </vehicle>
    <vehicle id="73" depart="73.00">
        <route edges="1350965238#1 120840401 321370423 28381271#0 28381271#1"/>
    </vehicle>
    <vehicle id="75" depart="75.00">
        <route edges="88088706 1157853987 1158086293#1 1157853715 681217517 681217518#0 681217518#1 1158086713 88088688#0 88088688#1 88088688#2 154928469#0 154928469#1 23174024#0 23174024#2 23174024#4 321370424 321370422#2 321370423 321370425#0 321370425#1 321370425#2 123306750 1158098732 1158098733#1 1158098640#1 1158098640#2 1158098640#4 24405341#1"/>
    </vehicle>
    <vehicle id="76" depart="76.00">
        <route edges="1232299201#1 1232299201#2 1232299201#3 1232299201#4 1232299200#0 1232299200#1 1232299200#2 1232299200#3 1232299199#0 1232299199#1 1323156786#1 1232299198#0 1232299198#1 1232299197 1323156788#0"/>
    </vehicle>
    <vehicle id="77" depart="77.00">
        <route edges="-24405341#4 -24405341#3 -24405341#2 -24405341#1 1158098640#5 123306749#1 1158098427#2 1158098083 1158094953 88088693 154928476#1 92867352 429392822 154928474 -1158087239#1 541673446 154928480 429392354 154928473 154928481#0 154928481#1 154928481#2 154928481#3 23174024#0 23174024#2 23174024#4 321370424 808404757 1079613305#0 808404758 -301243903#2 -301243903#1 -301243903#0 -1158097321 -301243902#1 -301243902#0 -1240474934 -1158095487 -73273590"/>
    </vehicle>
    <vehicle id="78" depart="78.00">
        <route edges="1158086715 681217513#0 681217513#1 88088706 1157853987 1158086293#1 1157853715 681217517 681217518#0 681217518#1 1158086713 88088688#0 88088688#1 88088688#2 78077965#0 78077965#1 78077965#2 154928445 154928448 154928474 -1158087239#1 541673446 154928480 429392354 154928473 154928481#0 154928481#1 154928481#2 154928481#3"/>
    </vehicle>
    <vehicle id="79" depart="79.00">