<configuration>
    <input>
        <net-file value="highway_with_tls.net.xml"/>
        <route-files value="highway.rou.xml"/>
    </input>
    <time>
        <begin value="0"/>
        <end value="1000"/>
    </time>
    <output>
        <netstate-dump value="raw.xml" />
    </output>
</configuration>
