<?xml version="1.0" encoding="UTF-8"?>

<!-- generated on 2025-02-02 20:37:32 by Eclipse SUMO netconvert Version 1.21.0
<netconvertConfiguration xmlns:xsi="http://www.w3.org/2001/XMLSchema-instance" xsi:noNamespaceSchemaLocation="http://sumo.dlr.de/xsd/netconvertConfiguration.xsd">

    <input>
        <sumo-net-file value="highway_with_tls.net.xml"/>
    </input>

    <output>
        <output-file value="highway.net.xml"/>
    </output>

    <processing>
        <geometry.min-radius.fix.railways value="false"/>
        <geometry.max-grade.fix value="false"/>
        <offset.disable-normalization value="true"/>
        <lefthand value="0"/>
        <edges.join value="true"/>
    </processing>

    <junctions>
        <no-internal-links value="true"/>
        <no-turnarounds value="true"/>
        <junctions.corner-detail value="5"/>
        <junctions.limit-turn-speed value="5.50"/>
        <rectangular-lane-cut value="0"/>
    </junctions>

    <pedestrian>
        <walkingareas value="0"/>
    </pedestrian>

</netconvertConfiguration>
-->

<net version="1.20" junctionCornerDetail="5" limitTurnSpeed="5.50" xmlns:xsi="http://www.w3.org/2001/XMLSchema-instance" xsi:noNamespaceSchemaLocation="http://sumo.dlr.de/xsd/net_file.xsd">

    <location netOffset="0.00,0.00" convBoundary="0.00,0.00,5000.00,0.00" origBoundary="0.00,-10.00,5000.00,10.00" projParameter="!"/>

    <edge id="E0" from="J0" to="J5" priority="1">
        <lane id="E0_0" index="0" speed="33.33" length="5000.00" shape="0.00,-8.00 5000.00,-8.00"/>
        <lane id="E0_1" index="1" speed="33.33" length="5000.00" shape="0.00,-4.80 5000.00,-4.80"/>
        <lane id="E0_2" index="2" speed="33.33" length="5000.00" shape="0.00,-1.60 5000.00,-1.60"/>
    </edge>
    <edge id="E1" from="J5" to="J0" priority="1">
        <lane id="E1_0" index="0" speed="33.33" length="5000.00" shape="5000.00,8.00 0.00,8.00"/>
        <lane id="E1_1" index="1" speed="33.33" length="5000.00" shape="5000.00,4.80 0.00,4.80"/>
        <lane id="E1_2" index="2" speed="33.33" length="5000.00" shape="5000.00,1.60 0.00,1.60"/>
    </edge>

    <junction id="J0" type="dead_end" x="0.00" y="0.00" incLanes="E1_0 E1_1 E1_2" intLanes="" shape="0.00,0.00 0.00,9.60 0.00,0.00"/>
    <junction id="J5" type="dead_end" x="5000.00" y="0.00" incLanes="E0_0 E0_1 E0_2" intLanes="" shape="5000.00,0.00 5000.00,-9.60 5000.00,0.00"/>

</net>
